Circuit: * C:\Users\tubed\Git\timelapser\battery-load\BatteryLoad.asc

Direct Newton iteration for .op point succeeded.

Date: Mon Jul 24 13:25:01 2017
Total elapsed time: 0.151 seconds.

tnom = 27
temp = 27
method = modified trap
totiter = 2113
traniter = 2100
tranpoints = 1051
accept = 1051
rejected = 0
matrix size = 9
fillins = 6
solver = Normal
Matrix Compiler1: 1.17 KB object code size  0.5/0.2/[0.1]
Matrix Compiler2: off  [0.1]/0.1/0.1

